Circuit: * C:\Users\uo294067\Desktop\TEC\Lab 5\Draft13.asc


Date: Tue Oct 17 18:25:12 2023
Total elapsed time: 0.111 seconds.

tnom = 27
temp = 27
method = trap
totiter = 231
traniter = 0
tranpoints = 0
accept = 0
rejected = 0
matrix size = 4
fillins = 0
solver = Normal
Avg thread counts: 2.3/0.0/3.4/2.3
Matrix Compiler1:       6 opcodes  0.2/[0.1]/0.3
Matrix Compiler2: 248 bytes object code size  0.1/0.2/[0.1]

