Circuit: * C:\Users\uo294067\Desktop\TEC\Lab 5\Draft14.asc

.step temp=25°C
.step temp=75°C
.step temp=125°C
.step temp=150°C

Date: Tue Oct 17 18:31:19 2023
Total elapsed time: 0.118 seconds.

tnom = 27
temp = 150
method = trap
totiter = 232
traniter = 0
tranpoints = 0
accept = 0
rejected = 0
matrix size = 4
fillins = 0
solver = Normal
Avg thread counts: 2.3/0.0/3.4/2.3
Matrix Compiler1: off  [0.1]/0.1/0.2
Matrix Compiler2: off  [0.1]/0.1/0.1

