Circuit: * C:\Users\uo294067\Desktop\TEC\Lab 5\Draft16.asc

.OP point found by inspection.

Date: Tue Oct 17 18:44:27 2023
Total elapsed time: 0.041 seconds.

tnom = 27
temp = 27
method = modified trap
totiter = 2272
traniter = 2272
tranpoints = 1117
accept = 1088
rejected = 29
matrix size = 4
fillins = 0
solver = Normal
Avg thread counts: 1.1/1.3/1.3/1.1
Matrix Compiler1: 136 bytes object code size  0.2/0.2/[0.1]
Matrix Compiler2: 242 bytes object code size  0.1/0.2/[0.1]

