Circuit: * C:\Users\uo294067\Desktop\TEC\Lab 5\Draft15.asc

.OP point found by inspection.

Date: Tue Oct 17 18:38:16 2023
Total elapsed time: 0.050 seconds.

tnom = 27
temp = 27
method = modified trap
totiter = 2346
traniter = 2346
tranpoints = 1153
accept = 1123
rejected = 30
matrix size = 4
fillins = 0
solver = Normal
Avg thread counts: 1.1/1.3/1.3/1.1
Matrix Compiler1:       7 opcodes  0.1/[0.1]/0.1
Matrix Compiler2: 242 bytes object code size  0.1/0.1/[0.1]

