Circuit: * C:\Users\uo294067\Desktop\TEC\Lab 6\Draft1.asc

Direct Newton iteration for .op point succeeded.

Date: Tue Oct 24 18:34:47 2023
Total elapsed time: 0.046 seconds.

tnom = 27
temp = 27
method = modified trap
totiter = 4745
traniter = 4725
tranpoints = 2058
accept = 1770
rejected = 288
matrix size = 18
fillins = 4
solver = Normal
Avg thread counts: 1.1/1.1/1.1/1.1
Matrix Compiler1: 1004 bytes object code size  0.7/0.5/[0.2]
Matrix Compiler2: 1.37 KB object code size  0.3/0.5/[0.2]

