Circuit: * C:\Users\uo294067\Desktop\TEC\Lab 6\Draft3.asc

Direct Newton iteration for .op point succeeded.

Date: Tue Oct 24 18:50:26 2023
Total elapsed time: 0.218 seconds.

tnom = 27
temp = 27
method = modified trap
totiter = 37756
traniter = 37747
tranpoints = 16064
accept = 11698
rejected = 4366
matrix size = 19
fillins = 5
solver = Normal
Avg thread counts: 1.0/1.0/1.0/1.0
Matrix Compiler1: 1.06 KB object code size  0.6/0.5/[0.2]
Matrix Compiler2: 1.49 KB object code size  0.4/0.7/[0.2]

