Circuit: * C:\Users\uo294067\Desktop\Draft8.asc

.OP point found by inspection.

Date: Tue Oct 10 19:17:30 2023
Total elapsed time: 0.040 seconds.

tnom = 27
temp = 27
method = modified trap
totiter = 2084
traniter = 2084
tranpoints = 1043
accept = 1043
rejected = 0
matrix size = 3
fillins = 0
solver = Normal
Avg thread counts: 1.1/1.3/1.3/1.1
Matrix Compiler1: 68 bytes object code size  0.1/0.1/[0.1]
Matrix Compiler2: off  [0.1]/0.1/0.1

