Circuit: * C:\Users\uo294067\Desktop\TEC\Lab 4\Draft12.asc

.OP point found by inspection.

Date: Tue Oct 10 19:30:55 2023
Total elapsed time: 0.065 seconds.

tnom = 27
temp = 27
method = modified trap
totiter = 2141
traniter = 2141
tranpoints = 1052
accept = 1049
rejected = 3
matrix size = 4
fillins = 0
solver = Normal
Avg thread counts: 1.1/1.3/1.3/1.1
Matrix Compiler1: 136 bytes object code size  0.1/0.1/[0.1]
Matrix Compiler2: 242 bytes object code size  0.1/0.1/[0.1]

