Circuit: * C:\Users\uo294067\Desktop\Draft3.asc

.OP point found by inspection.
.step c=5e-07
.step c=2e-06
.step c=4e-06

Date: Tue Oct 10 18:59:01 2023
Total elapsed time: 0.106 seconds.

tnom = 27
temp = 27
method = modified trap
totiter = 2088
traniter = 2088
tranpoints = 1045
accept = 1045
rejected = 0
matrix size = 3
fillins = 0
solver = Normal
Avg thread counts: 1.1/1.3/1.3/1.1
Matrix Compiler1:       3 opcodes  0.1/[0.1]/0.1
Matrix Compiler2: off  [0.1]/0.1/0.1

