Circuit: * C:\Users\uo294067\Desktop\TEC\Lab 4\Draft11.asc

.OP point found by inspection.

Date: Tue Oct 10 19:26:02 2023
Total elapsed time: 0.035 seconds.

tnom = 27
temp = 27
method = trap
totiter = 0
traniter = 0
tranpoints = 0
accept = 0
rejected = 0
matrix size = 3
fillins = 0
solver = Normal
Avg thread counts: 4.0/0.0/0.0/1.6
Matrix Compiler1:       4 opcodes
Matrix Compiler2:      15 opcodes
