Circuit: * C:\Users\paula\Downloads\Tec-20231106T223931Z-001\Tec\Draft1 Exercise 5.asc

.OP point found by inspection.

Date: Tue Nov  7 00:01:05 2023
Total elapsed time: 0.121 seconds.

tnom = 27
temp = 27
method = modified trap
totiter = 2102
traniter = 2102
tranpoints = 1052
accept = 1050
rejected = 2
matrix size = 3
fillins = 0
solver = Normal
Avg thread counts: 2.9/4.8/4.8/2.9
Matrix Compiler1: off  [0.2]/0.2/0.5
Matrix Compiler2: off  [0.2]/0.2/0.2

