Circuit: * C:\Users\paula\Downloads\Tec-20231106T223931Z-001\Tec\Draft1 Exercise 6.asc

.OP point found by inspection.
.step c=1e-06
.step c=4e-06
.step c=1e-05

Date: Tue Nov  7 11:47:28 2023
Total elapsed time: 0.453 seconds.

tnom = 27
temp = 27
method = modified trap
totiter = 2102
traniter = 2102
tranpoints = 1052
accept = 1050
rejected = 2
matrix size = 3
fillins = 0
solver = Normal
Avg thread counts: 2.9/4.8/4.8/2.9
Matrix Compiler1:       3 opcodes  0.1/0.1/[0.1]
Matrix Compiler2: off  [0.1]/0.1/0.1

