Circuit: * C:\Users\paula\Downloads\Tec-20231106T223931Z-001\Tec\Draft1.asc

.OP point found by inspection.
.step c=1e-07
.step c=2e-07
.step c=4e-07

Date: Tue Nov  7 12:19:19 2023
Total elapsed time: 0.397 seconds.

tnom = 27
temp = 27
method = modified trap
totiter = 2082
traniter = 2082
tranpoints = 1042
accept = 1042
rejected = 0
matrix size = 3
fillins = 0
solver = Normal
Avg thread counts: 2.9/4.9/4.9/2.9
Matrix Compiler1: off  [0.1]/0.5/0.1
Matrix Compiler2:      15 opcodes  0.1/[0.1]/0.1

