Circuit: * D:\curso 2\tec\LAB EXAM EXAMPLES\EXAM 2\LT SPICE 2\Draft1 Exercise 5.asc

.OP point found by inspection.
.step c=1e-06
.step c=4e-06
.step c=1e-05

Date: Tue Oct 31 19:04:32 2023
Total elapsed time: 0.258 seconds.

tnom = 27
temp = 27
method = modified trap
totiter = 2102
traniter = 2102
tranpoints = 1052
accept = 1050
rejected = 2
matrix size = 3
fillins = 0
solver = Normal
Avg thread counts: 1.1/1.3/1.3/1.1
Matrix Compiler1: off  [0.1]/0.1/0.2
Matrix Compiler2: off  [0.1]/0.1/0.1

