Circuit: * C:\Users\uo294067\Desktop\ex3_2.asc

.OP point found by inspection.

Date: Tue Oct 31 19:36:52 2023
Total elapsed time: 0.028 seconds.

tnom = 27
temp = 27
method = trap
totiter = 0
traniter = 0
tranpoints = 0
accept = 0
rejected = 0
matrix size = 3
fillins = 0
solver = Normal
Avg thread counts: 4.0/0.0/0.0/4.0
Matrix Compiler1:       4 opcodes
Matrix Compiler2:      15 opcodes
